<configuration>
    <input>
        <net-file value="osm.net.xml.gz"/>
        <route-files value="rutas.rou.xml"/>
    </input>

    <time>
        <begin value="0"/>
        <end value="3600"/>
    </time>

    <report>
        <verbose value="true"/>
        <no-step-log value="true"/>
    </report>
</configuration>

